157
temp
O     -5.899653  1.732479  2.838424
C     -5.867020  1.178166  1.732892
C     -7.069545  0.699166  1.047361
C     -6.988612  0.242545 -0.285551
N     -5.774166  0.206032 -0.925292
C     -5.706016 -0.276089 -2.297871
C     -4.526867  0.309278 -0.213840
O     -4.212021 -1.405098  0.335179
C     -4.968095 -1.993370  1.369434
O     -3.495825  0.551737 -0.885386
C     -8.181247 -0.144159 -0.931688
C     -9.390437 -0.092807 -0.255096
C     -9.463701  0.343473  1.070467
C     -8.299404  0.742471  1.706882
N     -4.689595  1.031103  1.037738
C     -3.493188  1.515143  1.676453
C     -2.898580  0.633268  2.584428
C     -1.769126  0.989711  3.302492
C     -1.215257  2.248973  3.090238
C     -1.814357  3.122046  2.194314
C     -2.982140  2.807148  1.472586
C     -3.554657  3.927777  0.579638
C     -3.791241  5.176591  1.458232
C     -2.520156  4.259791 -0.515071
C     -4.884847  3.634545 -0.130179
H     -6.352124  0.328212 -2.943957
H     -6.014974 -1.328499 -2.373416
H     -4.677476 -0.175879 -2.639754
H     -8.163999 -0.500492 -1.954270
H     -10.293103 -0.407099 -0.772650
H     -10.415874  0.373947  1.590304
H     -8.314157  1.101649  2.731362
H     -3.352916 -0.342189  2.721235
H     -1.320908  0.292602  4.004134
H     -0.318992  2.554749  3.623375
H     -1.360988  4.098998  2.059517
H     -4.500475  4.949234  2.262102
H     -4.214546  5.979094  0.843526
H     -2.869907  5.552905  1.910632
H     -2.368206  3.391376 -1.165716
H     -1.552207  4.550934 -0.094847
H     -2.885724  5.090640 -1.129855
H     -5.697631  3.448263  0.577381
H     -4.809510  2.795981 -0.825179
H     -5.155034  4.525135 -0.709357
O      2.693865 -4.218778 -0.996513
C      2.066934 -3.588415 -0.150017
N      2.623297 -3.067907  0.975903
C      4.025120 -3.125419  1.269530
C      4.926149 -2.096826  0.633505
N      4.346477 -1.223376 -0.218346
C      5.131889 -0.205769 -0.898835
H      6.072110 -0.657702 -1.223094
C      4.365674  0.295326 -2.138763
C      5.151041  1.344227 -2.882190
C      6.177985  0.974040 -3.755755
C      6.938693  1.940471 -4.407921
C      6.683402  3.293752 -4.192849
C      5.660604  3.673082 -3.326360
C      4.900241  2.703717 -2.676257
C      5.373953  0.994919  0.030345
N      6.629346  1.419931  0.233106
C      6.875153  2.656109  0.977303
O      4.382865  1.568415  0.531084
O      6.137572 -2.075276  0.882891
C      4.395962 -3.558833  2.673533
C      4.639308 -4.485535  1.532351
C      0.553771 -3.380248 -0.289324
H      0.336510 -3.421696 -1.363701
N      0.105071 -2.097943  0.274068
C      0.696922 -0.969280 -0.147876
C      0.434375  0.345186  0.588691
H     -0.406742  0.261789  1.281843
C      0.178043  1.460150 -0.434113
N     -0.820534  1.052293 -1.411353
C     -0.541457  0.876652 -2.714189
N     -1.191278 -0.066628 -3.418024
C     -1.684372 -1.306889 -2.822858
C     -1.507070  0.104784 -4.836482
N      0.378012  1.650545 -3.329857
C      0.565478  3.063058 -3.001423
C      1.260991  1.125729 -4.371014
N      1.630059  0.715364  1.338474
C      2.003233 -0.020585  2.445487
N      3.256275  0.304147  2.908931
C      3.967733 -0.321836  3.943206
C      5.364018 -0.188340  3.923856
C      6.139972 -0.768848  4.917490
C      5.541396 -1.493793  5.947026
C      4.154279 -1.611539  5.973254
C      3.360887 -1.027938  4.989186
O      1.264146 -0.866315  2.962323
O      1.528612 -0.991247 -1.074710
C     -0.984926 -2.266612  1.258872
C     -1.531654 -3.654902  0.918975
H     -1.999379 -4.122023  1.795610
N     -2.513450 -3.512826 -0.160074
C     -3.048845 -4.560854 -0.805352
C     -4.062190 -4.126690 -1.883534
F     -5.083320 -5.031854 -1.941798
F     -3.418374 -4.170167 -3.103742
O     -2.772050 -5.749904 -0.660002
C     -0.266176 -4.416273  0.495646
H      2.031606 -2.564773  1.629747
H      3.345316 -1.243390 -0.393613
H      3.400264  0.698113 -1.813541
H      4.171085 -0.570392 -2.782870
H      6.380130 -0.081797 -3.925306
H      7.731320  1.637180 -5.086625
H      7.276192  4.048645 -4.701963
H      5.452719  4.726179 -3.156785
H      4.103881  3.000805 -1.997501
H      7.446659  2.438760  1.887285
H      5.925571  3.117437  1.245449
H      7.456492  3.345487  0.353908
H      1.115449  1.666864 -0.956912
H     -0.136542  2.366205  0.097029
H     -2.562677 -0.150007 -4.983918
H     -0.897946 -0.554667 -5.466357
H     -1.352705  1.142237 -5.136171
H      1.218536  0.035190 -4.384807
H      2.287624  1.431738 -4.135331
H      1.000806  1.517302 -5.362226
H      2.400173  1.093314  0.785013
H      3.812283  0.892729  2.290764
H      5.838842  0.361967  3.114185
H      7.220398 -0.659992  4.879954
H      6.148170 -1.953984  6.721130
H      3.672081 -2.162210  6.776711
H      2.284101 -1.122456  5.026679
H     -1.745166 -1.486818  1.148857
H     -0.587672 -2.245839  2.279168
H     -3.066427 -2.624622 -0.153680
H     -4.478844 -3.120983 -1.742555
H     -0.472983 -5.309621 -0.091643
H      0.268839 -4.709973  1.405980
H      3.560565 -3.763591  3.335830
H      5.244459 -3.050219  3.118276
H      5.660289 -4.620084  1.191589
H      3.970302 -5.329318  1.401085
C      7.823975  0.757048 -0.305517
H      8.689087  1.125814  0.249919
H      7.966366  0.990387 -1.367874
H      7.765653 -0.324192 -0.164041
H     -0.208969  3.398006 -2.309934
H      0.489920  3.650805 -3.924459
H      1.553714  3.239953 -2.558526
H     -2.778597 -1.319014 -2.798534
H     -1.313933 -1.415874 -1.804875
H     -1.330939 -2.151223 -3.426704
C     -6.115231 -2.878872  0.885425
H     -5.738079 -3.751875  0.342069
H     -6.788306 -2.325893  0.221784
H     -6.700946 -3.245729  1.737365
H     -5.373582 -1.222049  2.046816
H     -4.294191 -2.607882  1.998352
H     -1.760214  0.791057 -1.075599
