51

O         -5.89965        1.73248        2.83842
C         -5.86702        1.17817        1.73289
C         -7.06954        0.69917        1.04736
C         -6.98861        0.24255       -0.28555
N         -5.77417        0.20603       -0.92529
C         -5.70602       -0.27609       -2.29787
C         -4.52687        0.30928       -0.21384
O         -4.21202       -1.40510        0.33518
C         -4.96809       -1.99337        1.36943
O         -3.49583        0.55174       -0.88539
C         -8.18125       -0.14416       -0.93169
C         -9.39044       -0.09281       -0.25510
C         -9.46370        0.34347        1.07047
C         -8.29940        0.74247        1.70688
N         -4.68959        1.03110        1.03774
C         -3.49319        1.51514        1.67645
C         -2.89858        0.63327        2.58443
C         -1.76913        0.98971        3.30249
C         -1.21526        2.24897        3.09024
C         -1.81436        3.12205        2.19431
C         -2.98214        2.80715        1.47259
C         -3.55466        3.92778        0.57964
C         -3.79124        5.17659        1.45823
C         -2.52016        4.25979       -0.51507
C         -4.88485        3.63455       -0.13018
H         -6.35212        0.32821       -2.94396
H         -6.01497       -1.32850       -2.37342
H         -4.67748       -0.17588       -2.63975
H         -8.16400       -0.50049       -1.95427
H        -10.29310       -0.40710       -0.77265
H        -10.41587        0.37395        1.59030
H         -8.31416        1.10165        2.73136
H         -3.35292       -0.34219        2.72124
H         -1.32091        0.29260        4.00413
H         -0.31899        2.55475        3.62337
H         -1.36099        4.09900        2.05952
H         -4.50047        4.94923        2.26210
H         -4.21455        5.97909        0.84353
H         -2.86991        5.55291        1.91063
H         -2.36821        3.39138       -1.16572
H         -1.55221        4.55093       -0.09485
H         -2.88572        5.09064       -1.12986
H         -5.69763        3.44826        0.57738
H         -4.80951        2.79598       -0.82518
H         -5.15503        4.52513       -0.70936
C         -6.11523       -2.87887        0.88543
H         -5.73808       -3.75188        0.34207
H         -6.78831       -2.32589        0.22178
H         -6.70095       -3.24573        1.73737
H         -5.37358       -1.22205        2.04682
H         -4.29419       -2.60788        1.99835
