105

O         -0.11723        1.10775       -4.16845
C         -0.77204        0.33752       -3.49263
N         -0.44472       -0.95004       -3.27492
C          0.76724       -1.53492       -3.76288
C          2.01539       -1.38342       -2.93575
N          1.93416       -0.60248       -1.84769
H          1.07613       -0.12831       -1.58609
C          3.11112       -0.32987       -1.05062
H          3.96396       -0.42483       -1.72729
C          3.04149        1.08759       -0.45671
C          3.15939        2.12999       -1.53412
C          4.40081        2.45906       -2.06508
C          4.50751        3.39858       -3.07477
C          3.37179        4.01935       -3.56748
C          2.13169        3.69863       -3.04283
C          2.02692        2.76029       -2.03105
C          3.22719       -1.33586        0.09811
N          4.45142       -1.75071        0.44029
C          4.61820       -2.66743        1.55223
C          5.66638       -1.38852       -0.26268
O          2.22121       -1.71751        0.70437
O          3.05495       -1.95218       -3.25523
C          0.63316       -2.81708       -4.55015
C          0.97690       -1.55669       -5.26289
C         -2.11452        0.77863       -2.88493
H         -2.03909        1.86648       -2.75487
N         -2.41588        0.13711       -1.61308
C         -1.48600        0.07227       -0.65884
C         -1.74299       -0.80149        0.56450
H         -2.70845       -1.30393        0.49433
C         -1.69992        0.05453        1.83678
N         -2.94984        0.75631        1.92750
C         -3.45158        1.13218        3.04484
N         -2.81401        1.14301        4.27085
C         -1.47229        1.64247        4.44189
C         -3.50167        0.81634        5.49696
N         -4.78948        1.47124        3.08061
C         -5.60242        1.13474        1.93453
C         -5.19463        2.70492        3.72483
N         -0.71899       -1.83127        0.58201
H          0.17561       -1.58311        0.98786
C         -0.69537       -2.72637       -0.44931
N          0.37181       -3.56944       -0.40741
C          0.66419       -4.63597       -1.26090
C          1.98007       -5.09233       -1.31072
O         -1.58810       -2.76348       -1.29748
O         -0.40095        0.64286       -0.79164
C         -3.75112       -0.43603       -1.58588
C         -4.44860        0.19344       -2.79400
H         -5.24574       -0.43383       -3.19789
N         -5.06049        1.45660       -2.43415
C         -6.33079        1.76242       -2.71060
C         -6.71209        3.19245       -2.25156
F         -5.72257        3.71271       -1.47965
F         -7.81580        3.16083       -1.46045
O         -7.13914        1.04646       -3.26088
C         -3.29592        0.39793       -3.78336
H         -1.02741       -1.53662       -2.68051
H          3.84735        1.20512        0.27175
H          2.08598        1.18929        0.06084
H          5.29307        1.98042       -1.68571
H          5.47871        3.64605       -3.47906
H          3.45371        4.75031       -4.35883
H          1.24055        4.17267       -3.42692
H          1.05834        2.50626       -1.62704
H          3.64702       -2.84483        2.00971
H          5.28955       -2.23183        2.29333
H          5.03128       -3.61472        1.20152
H          5.83507       -0.31173       -0.23283
H          5.63022       -1.71844       -1.30290
H          6.50306       -1.88204        0.22555
H         -0.36008       -3.22507       -4.65544
H          1.41262       -3.55045       -4.41130
H          0.22827       -1.06912       -5.86684
H          1.99055       -1.42432       -5.60795
H         -0.84549        0.73864        1.74329
H         -1.52413       -0.60185        2.70108
H         -1.47154        2.44658        5.18713
H         -1.10306        2.05076        3.50535
H         -0.78955        0.85813        4.78651
H         -3.60391        1.68499        6.15740
H         -2.93022        0.05113        6.03268
H         -4.48760        0.42231        5.26798
H         -5.48677        1.85413        1.11715
H         -6.64752        1.12099        2.24529
H         -5.31477        0.14782        1.58209
H         -5.35064        3.49446        2.98024
H         -4.43292        3.04004        4.42180
H         -6.13087        2.54906        4.26507
H         -4.25563       -0.18424       -0.65244
H         -3.69225       -1.52408       -1.69488
H         -4.47233        2.13349       -1.96746
H         -6.89721        3.86687       -3.09728
H         -3.50974        1.16349       -4.52587
H         -3.09003       -0.54169       -4.29623
C          2.31833       -6.16184       -2.11642
C         -0.30845       -5.27890       -2.02078
H          1.13730       -3.25974        0.18313
H         -1.32820       -4.93313       -1.98248
C          0.04048       -6.34874       -2.82539
C          1.34993       -6.79467       -2.87924
H         -0.72210       -6.83931       -3.41255
H          2.73490       -4.59591       -0.71858
H          3.34308       -6.50167       -2.15063
H          1.61547       -7.62985       -3.50989
