105

O         -0.14732       -1.90718       -3.13423
C         -0.41925       -0.72270       -3.13814
N          0.28596        0.20884       -3.81225
C          1.49974       -0.08785       -4.51057
C          2.73961       -0.26410       -3.67629
N          2.58298       -0.09888       -2.35214
H          1.69346        0.16949       -1.94552
C          3.70697       -0.08092       -1.44253
H          4.57761       -0.44805       -1.99885
C          3.98118        1.36241       -0.97501
C          4.16719        2.24822       -2.17251
C          5.39896        2.33725       -2.80793
C          5.54401        3.08946       -3.95997
C          4.45699        3.76089       -4.49392
C          3.22704        3.68553       -3.86312
C          3.08515        2.93479       -2.70930
C          3.41643       -0.99066       -0.24452
N          3.21258       -2.28894       -0.49228
C          2.84633       -3.18387        0.58756
C          3.19801       -2.90456       -1.80134
O          3.37084       -0.52341        0.89498
O          3.81019       -0.56015       -4.18909
C          1.40956       -0.91025       -5.77632
C          1.68703        0.55025       -5.86559
C         -1.59589       -0.15769       -2.33315
H         -1.50385        0.93302       -2.26691
N         -1.53609       -0.69894       -0.97776
C         -0.59353       -0.25121       -0.15050
C         -0.77337       -0.47236        1.33750
H         -1.22211       -1.43761        1.58821
C         -1.70558        0.66771        1.85647
N         -3.09765        0.31591        1.72784
C         -3.90433        0.54209        2.72108
N         -3.65408        1.39883        3.76611
C         -3.09006        2.71333        3.58146
C         -3.96653        1.05465        5.13289
N         -5.08062       -0.13877        2.78943
C         -5.28765       -1.35130        2.03689
C         -6.29221        0.46795        3.29413
N          0.52243       -0.40221        1.96130
H          1.27447       -0.02933        1.39642
C          0.77049       -0.95371        3.18087
N          2.09731       -0.89229        3.51698
C          2.73080       -1.33903        4.67460
C          4.12583       -1.30519        4.70006
O         -0.11856       -1.43461        3.86954
O          0.34834        0.42192       -0.57798
C         -2.67568       -1.55193       -0.71195
C         -3.75359       -0.87415       -1.54915
H         -4.63414       -1.49415       -1.73838
N         -4.13712        0.33646       -0.83740
C         -4.87271        1.29662       -1.38009
C         -5.07750        2.51293       -0.44133
F         -4.53164        2.27091        0.78170
F         -6.39418        2.74881       -0.22085
O         -5.36324        1.31110       -2.49649
C         -2.97935       -0.57630       -2.84307
H          0.03096        1.18223       -3.72859
H          4.86993        1.35910       -0.34254
H          3.13300        1.69771       -0.37584
H          6.24928        1.80894       -2.40015
H          6.50722        3.14727       -4.44607
H          4.56872        4.34198       -5.39784
H          2.37661        4.21217       -4.27270
H          2.12589        2.88084       -2.21275
H          2.92192       -2.65684        1.53497
H          3.52177       -4.04001        0.60056
H          1.82211       -3.53681        0.45114
H          3.53964       -3.93431       -1.70066
H          3.85609       -2.39228       -2.49749
H          2.18639       -2.91095       -2.21716
H          0.43322       -1.27509       -6.05369
H          2.22084       -1.59729       -5.95991
H          0.90407        1.20670       -6.21345
H          2.68911        0.86566       -6.11323
H         -1.46990        1.58275        1.29688
H         -1.42846        0.82392        2.90436
H         -3.76230        3.45871        4.02115
H         -2.98689        2.93158        2.52210
H         -2.11202        2.81080        4.06492
H         -4.73416        1.71178        5.55434
H         -3.06093        1.15321        5.74056
H         -4.30215        0.02312        5.18595
H         -5.71096       -1.15642        1.04717
H         -5.97764       -1.98817        2.59238
H         -4.33885       -1.87010        1.92994
H         -7.05338        0.46286        2.50987
H         -6.10895        1.50016        3.57488
H         -6.67490       -0.08221        4.15764
H         -2.92014       -1.56684        0.34477
H         -2.47198       -2.56242       -1.08027
H         -3.77577        0.40691        0.14994
H         -4.62169        3.42395       -0.85266
H         -3.45463        0.19678       -3.44107
H         -2.90487       -1.49074       -3.43172
C          4.81480       -1.72461        5.82109
C          2.04220       -1.79962        5.79397
H          2.72133       -0.57769        2.78008
H          0.96533       -1.83129        5.77660
C          2.74281       -2.21873        6.91051
C          4.12678       -2.18434        6.93285
H          2.19740       -2.57517        7.77263
H          4.66013       -0.94680        3.83096
H          5.89499       -1.69326        5.82710
H          4.66612       -2.51280        7.80895
