51

O         -4.71429       -0.84295        0.87850
C         -4.18046       -0.25106       -0.10685
C         -3.83445        1.20360       -0.00007
C         -3.26939        1.95858       -1.06699
N         -2.88280        1.36111       -2.26242
C         -2.39600        2.19905       -3.36104
C         -2.30380        0.04041       -2.17690
O         -2.39350       -0.57273       -3.38798
C         -1.48084       -1.67068       -3.63540
O         -1.37822       -0.20646       -1.38050
C         -3.13989        3.35123       -0.90341
C         -3.52484        3.97989        0.27303
C         -4.05375        3.24193        1.32861
C         -4.21121        1.87178        1.16875
N         -3.96539       -0.76829       -1.30499
C         -4.28853       -2.09657       -1.62421
C         -3.39442       -3.10078       -1.22596
C         -3.56931       -4.43203       -1.57481
C         -4.67145       -4.78333       -2.34396
C         -5.56948       -3.79712       -2.74518
C         -5.41834       -2.44352       -2.41338
C         -6.45346       -1.41114       -2.89236
C         -5.78218       -0.34543       -3.78011
C         -7.56894       -2.05644       -3.73146
C         -7.13431       -0.73309       -1.68696
H         -1.44019        2.69662       -3.12654
H         -3.14014        2.96486       -3.60008
H         -2.25586        1.57164       -4.24104
C         -2.09866       -2.53124       -4.71317
H         -1.32841       -2.23587       -2.71252
H         -0.51404       -1.25707       -3.95275
H         -2.71757        3.95380       -1.69861
H         -3.40082        5.05640        0.36197
H         -4.35678        3.72678        2.25167
H         -4.66302        1.27962        1.95877
H         -2.52944       -2.79861       -0.64677
H         -2.85215       -5.18130       -1.24852
H         -4.83968       -5.81660       -2.63508
H         -6.41847       -4.10692       -3.34280
H         -5.01197        0.20400       -3.23624
H         -6.54054        0.36257       -4.13641
H         -5.31419       -0.81439       -4.65380
H         -8.14033       -2.79758       -3.16138
H         -7.17745       -2.53592       -4.63551
H         -8.26501       -1.27181       -4.04649
H         -7.91329       -0.04864       -2.04419
H         -6.42819       -0.16029       -1.08468
H         -7.60716       -1.48121       -1.04036
H         -2.27501       -1.95504       -5.62707
H         -3.05023       -2.94781       -4.36656
H         -1.42189       -3.35816       -4.95222
