157
temp
O      3.005905  1.909167 -1.863470
C      3.573888  0.982012 -1.209444
C      3.520267 -0.413294 -1.729263
C      4.317222 -1.457470 -1.191101
N      5.048484 -1.279989 -0.032192
C      6.230911 -2.092383  0.225901
C      4.596938 -0.381281  0.998982
O      3.229819 -0.727641  1.282304
C      2.693689 -0.148466  2.496247
O      5.337872 -0.059318  1.927585
C      4.374700 -2.684013 -1.881831
C      3.619500 -2.894441 -3.026291
C      2.796194 -1.886952 -3.529966
C      2.774560 -0.657856 -2.886356
N      4.314606  1.154815 -0.121975
C      4.513309  2.444938  0.421572
C      3.468333  2.986615  1.182900
C      3.582510  4.205963  1.834530
C      4.775451  4.909621  1.730207
C      5.809572  4.395754  0.953284
C      5.720904  3.174666  0.267445
C      6.876043  2.731047 -0.650647
C      7.439764  1.362821 -0.231548
C      6.380931  2.656251 -2.109390
C      8.048111  3.726877 -0.626977
H      6.759931 -1.659129  1.075941
H      6.890558 -2.084061 -0.649833
H      5.987939 -3.138443  0.459372
C      2.750841 -1.114694  3.663349
H      1.650767  0.107302  2.275189
H      3.238445  0.769245  2.729863
H      4.992398 -3.489377 -1.499753
H      3.669791 -3.860174 -3.522736
H      2.199685 -2.052096 -4.422034
H      2.192336  0.165081 -3.287725
H      1.253324  2.023224 -1.660859
H      2.543782  2.423027  1.254971
H      2.751758  4.593902  2.418202
H      4.905795  5.860858  2.239035
H      6.716603  4.983031  0.878825
H      6.685737  0.580792 -0.310914
H      7.795788  1.389776  0.804057
H      8.285210  1.104215 -0.880918
H      5.960342  3.617817 -2.425156
H      5.616397  1.889538 -2.243372
H      7.223938  2.417131 -2.768802
H      8.832041  3.354926 -1.295079
H      8.483521  3.824980  0.373662
H      7.755041  4.721143 -0.981581
O     -2.230345 -4.049457  2.634335
C     -1.741738 -3.703751  1.562680
N     -2.458900 -3.547374  0.418936
C     -3.880594 -3.714096  0.355027
C     -4.746916 -2.571873  0.817378
N     -4.112183 -1.488624  1.318079
C     -4.872587 -0.347352  1.799071
H     -5.738423 -0.725823  2.346986
C     -4.012431  0.501784  2.756247
C     -4.824111  1.626459  3.346457
C     -5.559347  1.427067  4.518512
C     -6.368940  2.437467  5.030792
C     -6.458568  3.662649  4.372922
C     -5.727424  3.872865  3.205586
C     -4.914180  2.862104  2.698872
C     -5.292713  0.535556  0.614603
N     -6.577793  0.894205  0.486398
C     -6.971202  1.857650 -0.542433
O     -4.404706  0.923241 -0.175588
O     -5.979747 -2.645539  0.751596
C     -4.408409 -4.528184 -0.807847
C     -4.440007 -5.107027  0.564858
C     -0.233415 -3.472842  1.430406
H      0.127932 -3.196597  2.428180
N      0.103384 -2.427138  0.450435
C     -0.474055 -1.219283  0.544875
C     -0.368395 -0.241910 -0.632270
H      0.286946 -0.624153 -1.420018
C      0.167446  1.099199 -0.118195
N      0.338909  2.072615 -1.183792
C     -0.633129  2.821940 -1.727786
N     -1.602201  3.371427 -0.968523
C     -1.375696  3.774755  0.417553
C     -2.954900  3.598792 -1.478475
N     -0.608257  3.053135 -3.053442
C      0.021393  2.109986 -3.978587
C     -1.005295  4.338585 -3.630625
N     -1.701158 -0.061695 -1.195758
C     -2.229874 -1.082964 -1.968503
N     -3.563096 -0.914510 -2.247073
C     -4.405505 -1.792496 -2.945067
C     -5.783343 -1.659623 -2.718833
C     -6.686420 -2.483675 -3.375763
C     -6.234948 -3.454429 -4.268927
C     -4.867797 -3.573613 -4.504147
C     -3.948978 -2.749987 -3.859104
O     -1.540438 -2.025478 -2.374887
O     -1.186155 -0.916093  1.518754
C      1.079080 -2.891039 -0.555288
C      1.688937 -4.120410  0.110632
H      2.081658 -4.824989 -0.629779
N      2.768932 -3.728076  1.019238
C      3.518635 -4.662235  1.624060
C      4.532989 -4.110469  2.643172
F      5.704453 -4.802958  2.525960
F      4.034967 -4.367779  3.899511
O      3.415059 -5.874485  1.453451
C      0.498849 -4.711853  0.883459
H     -1.980529 -3.273254 -0.432853
H     -3.098208 -1.419759  1.310028
H     -3.149580  0.891495  2.204131
H     -3.640535 -0.159420  3.547013
H     -5.496116  0.469471  5.031366
H     -6.931222  2.267954  5.945090
H     -7.090961  4.451367  4.770962
H     -5.786969  4.827587  2.689811
H     -4.346295  3.029801  1.786155
H     -7.779245  1.437822 -1.151302
H     -6.115146  2.085028 -1.176859
H     -7.330333  2.779515 -0.067659
H      1.155573  0.919819  0.316928
H     -0.484884  1.464884  0.679412
H     -3.149747  4.665280 -1.645826
H     -3.667861  3.214184 -0.741685
H     -3.099580  3.049493 -2.410823
H     -1.919780  4.243799 -4.227928
H     -0.195875  4.689393 -4.280883
H     -1.159311  5.075648 -2.841394
H     -2.368172  0.434548 -0.604369
H     -4.036886 -0.193409 -1.703638
H     -6.140799 -0.916012 -2.009682
H     -7.749188 -2.370610 -3.180172
H     -6.940276 -4.104262 -4.778222
H     -4.501553 -4.317730 -5.206582
H     -2.890115 -2.852347 -4.054276
H      1.818473 -2.117788 -0.773340
H      0.574368 -3.179157 -1.484549
H      2.961528 -2.734872  1.165531
H      4.746890 -3.036711  2.567148
H      0.802365 -5.396240  1.676660
H     -0.142582 -5.253050  0.178493
H     -1.890738  3.105088  1.119011
H     -1.773861  4.787054  0.553595
H     -0.306363  3.786592  0.638394
H     -0.541305  2.123551 -4.917538
H     -0.014409  1.100753 -3.562377
H      1.063518  2.384063 -4.188668
C     -7.638822  0.485692  1.415969
H     -8.598226  0.743796  0.963241
H     -7.552694  1.010467  2.375316
H     -7.620040 -0.594431  1.580026
H     -3.658768 -4.890884 -1.504351
H     -5.338437 -4.180882 -1.244744
H     -5.396102 -5.164045  1.073950
H     -3.708583 -5.865964  0.821773
H      3.785615 -1.344617  3.933077
H      2.222037 -2.046311  3.433238
H      2.263090 -0.660729  4.533419
